// physical parameters
L = 1.0                              // length of the computational (fluid) domain (m)
WSPAN = 0.08                         // Span of the wing
RHO = 1000.0                         // fluid mass density (kg / m^3)
FREQUENCY = 1.0                      //Note this is also set in update_target_positions
RE = 4.0                             //Target Re, MU is changed to get the desired RE
MU = RHO*(WSPAN/2.0)*((2.0/3.0)*2.0*3.14*WSPAN*FREQUENCY)/RE         // fluid dynamic viscosity (N s / m^2)

// grid spacing parameters                                  
MAX_LEVELS = 4                            // maximum number of levels in locally refined grid
REF_RATIO  = 4                            // refinement ratio between levels
N = 8                                     // actual number of grid cells on coarsest grid level
NFINEST = (REF_RATIO^(MAX_LEVELS - 1))*N       // effective number of grid cells on finest   grid level
DX0 = L/N                                      // mesh width on coarsest grid level
DX  = L/NFINEST                                // mesh width on finest   grid level
MFAC = 1.0                                     // ratio of Lagrangian mesh width to Cartesian mesh width   
PK1_DEV_QUAD_ORDER = "SEVENTH"
PK1_DIL_QUAD_ORDER = "FIFTH"
KAPPA_S = 1.0e13
NU=0.3
E_STEM=2.0
E_LEAF=2.0
MU_LEAF = E_LEAF/(2.0*(1.0+NU)) 
MU_STEM = E_STEM/(2.0*(1.0+NU)) 
BETA_STEM = E_STEM*NU/((1.0 + NU)*(1.0 - 2.0*NU))
BETA_LEAF = E_LEAF*NU/((1.0 + NU)*(1.0 - 2.0*NU))
MESH_FILENAME = "pos_wing.e"


// solver parameters
USE_IB_DELTA_FUNCTIONS     = TRUE              // whether to use smoothed delta functions to mediate Lagrangian-Eulerian interaction
IB_DELTA_FUNCTION          = "IB_4"            // the type of smoothed delta function to use for Lagrangian-Eulerian interaction
SPLIT_FORCES               = FALSE             // whether to split interior and boundary forces
USE_JUMP_CONDITIONS        = FALSE             // whether to impose pressure jumps at fluid-structure interfaces
USE_CONSISTENT_MASS_MATRIX = TRUE              // whether to use a consistent or lumped mass matrix
IB_POINT_DENSITY           = 1.0               // approximate density of IB quadrature points for Lagrangian-Eulerian interaction
SOLVER_TYPE                = "STAGGERED"       // the fluid solver to use (STAGGERED or COLLOCATED)
START_TIME                 = 0.0e0             // initial simulation time
END_TIME                   = 4.0             // final simulation time
GROW_DT                    = 1e-2             // growth factor for timesteps
CONVECTIVE_TS_TYPE         = "ADAMS_BASHFORTH" // convective time stepping type
CONVECTIVE_OP_TYPE         = "PPM"             // convective differencing discretization type
CONVECTIVE_FORM            = "ADVECTIVE"       // how to compute the convective terms
NORMALIZE_PRESSURE         = FALSE             // whether to explicitly force the pressure to have mean zero
CFL_MAX                    = 0.2               // maximum CFL number
DT                         = 1e-5//0.25*CFL_MAX*DX    // maximum timestep size
ERROR_ON_DT_CHANGE         = TRUE              // whether to emit an error message if the time step size changes
VORTICITY_TAGGING          = TRUE              // whether to tag cells for refinement based on vorticity thresholds
TAG_BUFFER                 = 1                 // size of tag buffer used by grid generation algorithm
REGRID_CFL_INTERVAL        = 0.5               // regrid whenever any material point could have moved 0.5 meshwidths since previous regrid
OUTPUT_U                   = TRUE
OUTPUT_P                   = TRUE
OUTPUT_F                   = TRUE
OUTPUT_OMEGA               = TRUE
OUTPUT_DIV_U               = TRUE
ENABLE_LOGGING             = TRUE

// model parameters
//KAPPA_S = 7.5*DX/DT^2
ETA_S = 0*DX/DT

// collocated solver parameters
PROJECTION_METHOD_TYPE = "PRESSURE_UPDATE"
SECOND_ORDER_PRESSURE_UPDATE = TRUE

VelocityBcCoefs_0 {
   acoef_function_0 = "1.0"
   acoef_function_1 = "1.0"
   acoef_function_2 = "1.0"
   acoef_function_3 = "1.0"
   acoef_function_4 = "1.0"
   acoef_function_5 = "1.0"

   bcoef_function_0 = "0.0"
   bcoef_function_1 = "0.0"
   bcoef_function_2 = "0.0"
   bcoef_function_3 = "0.0"
   bcoef_function_4 = "0.0"
   bcoef_function_5 = "0.0"

   gcoef_function_0 = "0.0"
   gcoef_function_1 = "0.0"
   gcoef_function_2 = "0.0"
   gcoef_function_3 = "0.0"
   gcoef_function_4 = "0.0"
   gcoef_function_5 = "0.0"
}

VelocityBcCoefs_1 {

   acoef_function_0 = "1.0"
   acoef_function_1 = "1.0"
   acoef_function_2 = "1.0"
   acoef_function_3 = "1.0"
   acoef_function_4 = "1.0"
   acoef_function_5 = "1.0"

   bcoef_function_0 = "0.0"
   bcoef_function_1 = "0.0"
   bcoef_function_2 = "0.0"
   bcoef_function_3 = "0.0"
   bcoef_function_4 = "0.0"
   bcoef_function_5 = "0.0"

   gcoef_function_0 = "0.0"
   gcoef_function_1 = "0.0"
   gcoef_function_2 = "0.0"
   gcoef_function_3 = "0.0"
   gcoef_function_4 = "0.0"
   gcoef_function_5 = "0.0"
}

VelocityBcCoefs_2 {
   acoef_function_0 = "1.0"
   acoef_function_1 = "1.0"
   acoef_function_2 = "1.0"
   acoef_function_3 = "1.0"
   acoef_function_4 = "1.0"
   acoef_function_5 = "1.0"

   bcoef_function_0 = "0.0"
   bcoef_function_1 = "0.0"
   bcoef_function_2 = "0.0"
   bcoef_function_3 = "0.0"
   bcoef_function_4 = "0.0"
   bcoef_function_5 = "0.0"

   gcoef_function_0 = "0.0"
   gcoef_function_1 = "0.0"
   gcoef_function_2 = "0.0"
   gcoef_function_3 = "0.0"
   gcoef_function_4 = "0.0"
   gcoef_function_5 = "0.0"
}

IBHierarchyIntegrator {
   start_time          = START_TIME
   end_time            = END_TIME
   grow_dt             = GROW_DT
   regrid_cfl_interval = REGRID_CFL_INTERVAL
   dt_max              = DT
   error_on_dt_change  = ERROR_ON_DT_CHANGE
   enable_logging      = ENABLE_LOGGING
}

IBFEMethod {
   use_IB_spread_operator     = USE_IB_DELTA_FUNCTIONS
   use_IB_interp_operator     = USE_IB_DELTA_FUNCTIONS
   IB_delta_fcn               = IB_DELTA_FUNCTION
   split_forces               = SPLIT_FORCES
   use_jump_conditions        = USE_JUMP_CONDITIONS
   use_consistent_mass_matrix = USE_CONSISTENT_MASS_MATRIX
   IB_point_density           = IB_POINT_DENSITY
   IB_quad_type               = "QGAUSS"

}

INSCollocatedHierarchyIntegrator {
   mu                            = MU
   rho                           = RHO
   start_time                    = START_TIME
   end_time                      = END_TIME
   grow_dt                       = GROW_DT
   convective_time_stepping_type = CONVECTIVE_TS_TYPE
   convective_op_type            = CONVECTIVE_OP_TYPE
   convective_difference_form    = CONVECTIVE_FORM
   normalize_pressure            = NORMALIZE_PRESSURE
   cfl                           = CFL_MAX
   dt_max                        = DT
   using_vorticity_tagging       = VORTICITY_TAGGING
   vorticity_abs_thresh          = 1.0, 2.0, 4.0, 8.0
   tag_buffer                    = TAG_BUFFER
   output_U                      = OUTPUT_U
   output_P                      = OUTPUT_P
   output_F                      = OUTPUT_F
   output_Omega                  = OUTPUT_OMEGA
   output_Div_U                  = OUTPUT_DIV_U
   enable_logging                = ENABLE_LOGGING
   projection_method_type        = PROJECTION_METHOD_TYPE
   use_2nd_order_pressure_update = SECOND_ORDER_PRESSURE_UPDATE
}

INSStaggeredHierarchyIntegrator {
   mu                            = MU
   rho                           = RHO
   start_time                    = START_TIME
   end_time                      = END_TIME
   grow_dt                       = GROW_DT
   convective_time_stepping_type = CONVECTIVE_TS_TYPE
   convective_op_type            = CONVECTIVE_OP_TYPE
   convective_difference_form    = CONVECTIVE_FORM
   normalize_pressure            = NORMALIZE_PRESSURE
   cfl                           = CFL_MAX
   dt_max                        = DT
   using_vorticity_tagging       = VORTICITY_TAGGING
   vorticity_abs_thresh          = 1.0, 2.0, 4.0, 8.0
   tag_buffer                    = TAG_BUFFER
   output_U                      = OUTPUT_U
   output_P                      = OUTPUT_P
   output_F                      = OUTPUT_F
   output_Omega                  = OUTPUT_OMEGA
   output_Div_U                  = OUTPUT_DIV_U
   enable_logging                = ENABLE_LOGGING
}

Main {
   solver_type = SOLVER_TYPE

// log file parameters
   log_file_name               = "IB3d.log"
   log_all_nodes               = FALSE

// visualization dump parameters
   viz_writer                  = "VisIt","ExodusII"
   viz_dump_interval           = int(0.05/DT)
   viz_dump_dirname            = "viz_IB3d"
   visit_number_procs_per_file = 1

// restart dump parameters
   restart_dump_interval       =  int(0.2/DT)
   restart_dump_dirname        = "restart_IB3d"

// hierarchy data dump parameters
   data_dump_interval          =  int(0.001/DT)
   data_dump_dirname           = "hier_data_IB3d"

// timer dump parameters
   timer_dump_interval         = 0
   
   postproc_data_dump_interval = int(0.001/DT)
}

CartesianGeometry {
   domain_boxes = [ (0,0,0),(N - 1,N - 1,N - 1) ]
   x_lo = -0.5*L,-0.5*L,-0.5*L
   x_up =  0.5*L,0.5*L,0.5*L
   periodic_dimension = 0,0,0
}

GriddingAlgorithm {
   max_levels = MAX_LEVELS
   ratio_to_coarser {
      level_1 = REF_RATIO,REF_RATIO,REF_RATIO
      level_2 = REF_RATIO,REF_RATIO,REF_RATIO
      level_3 = REF_RATIO,REF_RATIO,REF_RATIO
      level_4 = REF_RATIO,REF_RATIO,REF_RATIO
      level_5 = REF_RATIO,REF_RATIO,REF_RATIO
   }
   largest_patch_size {
      level_0 = 256,256,256   // all finer levels will use same values as level_0
   }
   smallest_patch_size {
      level_0 =   8,  8,  8  // all finer levels will use same values as level_0
   }
   efficiency_tolerance = 0.70e0  // min % of tag cells in new patch level
   combine_efficiency   = 0.70e0  // chop box if sum of volumes of smaller boxes < efficiency * vol of large box
}

StandardTagAndInitialize {
   tagging_method = "GRADIENT_DETECTOR"
}

LoadBalancer {
   bin_pack_method     = "SPATIAL"
   max_workload_factor = 1
}

TimerManager{
   print_exclusive = FALSE
   print_total = TRUE
   print_threshold = 0.1

   timer_list = "IBAMR::*::*","IBTK::*::*","*::*::*"
}
